# generated using pymatgen
data_Sc2ZnSe4
_symmetry_space_group_name_H-M   'P 1'
_cell_length_a   7.78693632
_cell_length_b   7.78693600
_cell_length_c   7.78693855
_cell_angle_alpha   60.00044908
_cell_angle_beta   60.00045614
_cell_angle_gamma   60.00049831
_symmetry_Int_Tables_number   1
_chemical_formula_structural   Sc2ZnSe4
_chemical_formula_sum   'Sc4 Zn2 Se8'
_cell_volume   333.87936918
_cell_formula_units_Z   2
loop_
 _symmetry_equiv_pos_site_id
 _symmetry_equiv_pos_as_xyz
  1  'x, y, z'
loop_
 _atom_site_type_symbol
 _atom_site_label
 _atom_site_symmetry_multiplicity
 _atom_site_fract_x
 _atom_site_fract_y
 _atom_site_fract_z
 _atom_site_occupancy
  Sc  Sc0  1  0.12500415  0.62499860  0.62499860  1
  Sc  Sc1  1  0.62499861  0.12500420  0.62499860  1
  Sc  Sc2  1  0.62499858  0.62499862  0.12500421  1
  Sc  Sc3  1  0.62499859  0.62499860  0.62499860  1
  Zn  Zn4  1  0.25000079  0.25000081  0.25000083  1
  Zn  Zn5  1  -0.00000081  -0.00000076  -0.00000082  1
  Se  Se6  1  0.86193965  0.37935236  0.37935244  1
  Se  Se7  1  0.37935236  0.86193964  0.37935249  1
  Se  Se8  1  0.37935249  0.37935243  0.86193960  1
  Se  Se9  1  0.37935212  0.37935204  0.37935196  1
  Se  Se10  1  0.38839373  0.87053650  0.87053648  1
  Se  Se11  1  0.87053652  0.38839364  0.87053644  1
  Se  Se12  1  0.87053645  0.87053637  0.38839370  1
  Se  Se13  1  0.87053677  0.87053694  0.87053688  1
